CM --- NEC2 Input File created or edited by xnec2c 3.9-beta ---
CE --- End Comments ---
GW     1    15  -5.14300E-01 -3.90000E-01  1.00000E+00  5.14300E-01 -3.90000E-01  1.00000E+00  1.00000E-02
GW     2    15  -4.88900E-01  0.00000E+00  1.00000E+00  4.88900E-01  0.00000E+00  1.00000E+00  1.00000E-02
GW     3    15  -4.34900E-01  4.40000E-01  1.00000E+00  4.34900E-01  4.40000E-01  1.00000E+00  1.00000E-02
GW     4    15   0.00000E+00 -3.80000E-01  8.34900E-01  0.00000E+00 -3.80000E-01  1.16510E+00  1.00000E-02
GW     5    15   0.00000E+00 -2.50000E-01  8.47600E-01  0.00000E+00 -2.50000E-01  1.15240E+00  1.00000E-02
GW     6    15   0.00000E+00 -1.20000E-01  8.66600E-01  0.00000E+00 -1.20000E-01  1.13330E+00  1.00000E-02
GW     7    15   0.00000E+00  3.00000E-02  8.73000E-01  0.00000E+00  3.00000E-02  1.12700E+00  1.00000E-02
GW     8    15   0.00000E+00  1.40000E-01  8.76200E-01  0.00000E+00  1.40000E-01  1.12380E+00  1.00000E-02
GW    10    15  0.00000E+00  2.80000E-01  8.76200E-01  0.00000E+00  2.80000E-01  1.12380E+00  1.00000E-02
GW    11    15   0.00000E+00  4.00000E-01  8.76200E-01  0.00000E+00  4.00000E-01  1.12380E+00  1.00000E-02
GE    -1     0   0.00000E+00  0.00000E+00  0.00000E+00  0.00000E+00  0.00000E+00  0.00000E+00  0.00000E+00
EX     0     2     8      0  1.00000E+00  0.00000E+00  0.00000E+00  0.00000E+00  0.00000E+00  0.00000E+00
EX     0     5     8      0  1.00000E+00  0.00000E+00  0.00000E+00  0.00000E+00  0.00000E+00  0.00000E+00
FR     0    21     0      0  1.40000E+02  5.00000E-01  1.50000E+02  0.00000E+00  0.00000E+00  0.00000E+00
NH     0     0     0      0  0.00000E+00  0.00000E+00  0.00000E+00  0.00000E+00  0.00000E+00  0.00000E+00
NE     0    10     1     10 -1.35000E+00  0.00000E+00 -1.35000E+00  3.00000E-01  0.00000E+00  3.00000E-01
RP     0    19    37      0  0.00000E+00  0.00000E+00  5.00000E+00  1.00000E+01  0.00000E+00  0.00000E+00
GN     1     0     0      0  0.00000E+00  0.00000E+00  0.00000E+00  0.00000E+00  0.00000E+00  0.00000E+00
GD     0     0     0      0  0.00000E+00  0.00000E+00  0.00000E+00  0.00000E+00  0.00000E+00  0.00000E+00
LD     5     1     0      0  1.68200E+06  0.00000E+00  0.00000E+00  0.00000E+00  0.00000E+00  0.00000E+00
LD     5     2     0      0  1.68200E+06  0.00000E+00  0.00000E+00  0.00000E+00  0.00000E+00  0.00000E+00
LD     5     3     0      0  1.68200E+06  0.00000E+00  0.00000E+00  0.00000E+00  0.00000E+00  0.00000E+00
FR     0    11     0      0  1.40000E+02  1.00000E+00  1.50000E+02  0.00000E+00  0.00000E+00  0.00000E+00
FR     0    11     0      0  4.30000E+02  1.00000E+00  4.40000E+02  0.00000E+00  0.00000E+00  0.00000E+00
LD     5     4     0      0  1.68200E+06  0.00000E+00  0.00000E+00  0.00000E+00  0.00000E+00  0.00000E+00
LD     5     5     0      0  1.68200E+06  0.00000E+00  0.00000E+00  0.00000E+00  0.00000E+00  0.00000E+00
LD     5     6     0      0  1.68200E+06  0.00000E+00  0.00000E+00  0.00000E+00  0.00000E+00  0.00000E+00
EN     0     0     0      0  0.00000E+00  0.00000E+00  0.00000E+00  0.00000E+00  0.00000E+00  0.00000E+00
